tests/data/power_flow/zero_sequence_yyn_transformer/input.json
{
  "version": "1.0",
  "type": "input",
  "is_batch": false,
  "attributes": {},
  "data": {
    "node": [
      {
        "id": 1,
        "u_rated": 10000
      },
      {
        "id": 2,
        "u_rated": 10000
      }
    ],
    "transformer": [
      {
        "id": 4,
        "from_node": 1,
        "to_node": 2,
        "from_status": 1,
        "to_status": 1,
        "u1": 10000,
        "u2": 10000,
        "sn": 10000000,
        "uk": 0.1,
        "pk": 0,
        "i0": 0.05,
        "p0": 0,
        "i0_zero_sequence": 1,
        "winding_from": 0,
        "winding_to": 1,
        "clock": 12,
        "tap_side": 0,
        "tap_pos": 0,
        "tap_min": 0,
        "tap_max": 0,
        "tap_nom": 0,
        "tap_size": 0
      }
    ],
    "asym_load": [
      {
        "id": 6,
        "node": 2,
        "status": 1,
        "type": 0,
        "p_specified": [
          800000,
          1000000,
          1200000
        ],
        "q_specified": [
          0,
          0,
          0
        ]
      }
    ],
    "source": [
      {
        "id": 7,
        "node": 1,
        "status": 1,
        "u_ref": 1,
        "sk": 1e+50,
        "rx_ratio": 0,
        "z01_ratio": 1
      }
    ]
  }
}
