tests/data/power_flow/zero_sequence_yyn_transformer/asym_output.json
{
  "version": "1.0",
  "type": "asym_output",
  "is_batch": false,
  "attributes": {},
  "data": {
    "node": [
      {
        "id": 1,
        "energized": 1,
        "u_pu": [
          1,
          1,
          1
        ],
        "u": [
          5773.502691896258,
          5773.502691896258,
          5773.502691896258
        ],
        "u_angle": [
          -2.6439876230271684e-44,
          -2.0943951023931953,
          2.0943951023931953
        ],
        "p": [
          881329.2076757225,
          1037364.8940881646,
          1081305.898236114
        ],
        "q": [
          226203.41305523555,
          85377.46635525578,
          290921.3080353577
        ]
      },
      {
        "id": 2,
        "energized": 1,
        "u_pu": [
          1.0141430605715689,
          0.9665698915370033,
          1.0110998975479204
        ],
        "u": [
          5855.157690177863,
          5580.493870694762,
          5837.587980268949
        ],
        "u_angle": [
          0.001939888439272864,
          -2.124781518967959,
          2.0324414694676975
        ],
        "p": [
          -799999.9999999985,
          -1000000.0000000008,
          -1199999.9999999972
        ],
        "q": [
          7.458750868868283e-10,
          1.7304176386161853e-09,
          5.172586575767164e-09
        ]
      }
    ],
    "transformer": [
      {
        "id": 4,
        "energized": 1,
        "loading": 0.30705253328631577,
        "p_from": [
          881329.2076757225,
          1037364.8940881646,
          1081305.898236114
        ],
        "q_from": [
          226203.41305523555,
          85377.46635525576,
          290921.3080353577
        ],
        "i_from": [
          157.59846030784894,
          180.28437829560764,
          193.9477496411763
        ],
        "s_from": [
          909895.1348260712,
          1040872.3433965337,
          1119757.8546405528
        ],
        "p_to": [
          -799999.9999999985,
          -1000000.0000000008,
          -1199999.9999999972
        ],
        "q_to": [
          7.460605515630315e-10,
          1.7076212935884444e-09,
          5.1782885887484745e-09
        ],
        "i_to": [
          136.6316745562658,
          179.19560941574917,
          205.56435364331952
        ],
        "s_to": [
          799999.9999999985,
          1000000.0000000008,
          1199999.9999999972
        ]
      }
    ],
    "asym_load": [
      {
        "id": 6,
        "energized": 1,
        "p": [
          799999.9999999999,
          1000000,
          1200000
        ],
        "q": [
          0,
          0,
          0
        ],
        "i": [
          136.63167455626603,
          179.19560941574903,
          205.56435364331998
        ],
        "s": [
          799999.9999999999,
          1000000,
          1200000
        ],
        "pf": [
          1,
          1,
          1
        ]
      }
    ],
    "source": [
      {
        "id": 7,
        "energized": 1,
        "p": [
          881329.2076757225,
          1037364.8940881646,
          1081305.898236114
        ],
        "q": [
          226203.41305523555,
          85377.46635525576,
          290921.30803535774
        ],
        "i": [
          157.59846030784894,
          180.28437829560764,
          193.9477496411763
        ],
        "s": [
          909895.1348260712,
          1040872.3433965337,
          1119757.8546405528
        ],
        "pf": [
          0.9686052534440586,
          0.9966302790821362,
          0.9656604718197919
        ]
      }
    ]
  }
}
